LTspice 24.0.9 for Windows
Circuit: * C:\Users\Chris Scheepers\OneDrive - University of Cape Town\2024\EEE3088F\IR Sensor Design-Draft.asc
Start Time: Thu Feb 29 10:43:23 2024
Warning: Multiple definitions of model "2scr375p" Type: BJT
Warning: Multiple definitions of model "bc857b" Type: BJT
Warning: Multiple definitions of model "bc847c" Type: BJT
Warning: Multiple definitions of model "bc847b" Type: BJT
solver = Normal
Maximum thread count: 4
tnom = 27
temp = 27
method = modified trap
WARNING: Less than two connections to node nc_01.  This node is used by q2.
Direct Newton iteration for .op point succeeded.
Heightened Def Con from 0.0629351 to 0.0629351
Heightened Def Con from 0.431964 to 0.431964
Heightened Def Con from 1.06205 to 1.06205
Heightened Def Con from 1.8946 to 1.8946
Heightened Def Con from 3.43136 to 3.43136
Heightened Def Con from 4.89421 to 4.89421
Heightened Def Con from 6.06162 to 6.06162
Heightened Def Con from 7.43059 to 7.43059
Heightened Def Con from 7.895 to 7.895
Heightened Def Con from 8.06244 to 8.06244
Heightened Def Con from 8.43173 to 8.43173
Heightened Def Con from 9.06289 to 9.06289
Total elapsed time: 0.425 seconds.

